<configuration>
	<input>
		<net-file value="demo.net.xml"/>
		<route-files value="demo2.rou.xml"/>
	</input>

</configuration>

