<!--<routes>
    <vType id="type1" accel="0.8" decel="4.5" sigma="0.5" length="5" maxSpeed="70"/>

    <vehicle id="0" type="type1" depart="0" color="1,0,0">
      <route edges="E0 E1 E2 E3 E4 -E0"/>
    
	</vehicle>
	<vehicle id="1" type="type1" depart="2" color="1,0,0">
      <route edges="E0 E1 E2 E3 E4 -E0"/>
    </vehicle>
		
</routes>-->

<routes>
	<vType id="car" vClass="passenger" length="5" accel="3.5" decel="2.2" sigma="1.0" maxSpeed="10" color="1,0,0"/>
	<vType id="car1" vClass="passenger" length="5" accel="3.5" decel="2.2" sigma="1.0" maxSpeed="10" color="0,1,0"/>
	<vType id="car2" vClass="passenger" length="5" accel="3.5" decel="2.2" sigma="1.0" maxSpeed="10" color="0,255,255"/>
	<vType id="car3" vClass="passenger" length="5" accel="3.5" decel="2.2" sigma="1.0" maxSpeed="10" color="0,255,0"/>
	
	<route id="route_0" edges="E0 E1 E2 E3 E4 -E0"/>
	<route id="route_2" edges="E0 E1 E2 E3 E4"/>
	<flow id="carflow" type="car" beg="0" end="0" number="5" from="E1" to="-E0"/>
	<flow id="carflow1" type="car1" beg="2" end="0" number="5" from="E1" to="-E0"/>
	<flow id="carflow2" type="car2" beg="4" end="0" number="5" from="E1" to="-E0"/>
	<flow id="carflow3" type="car3" beg="6" end="0" number="5" from="E1" to="-E0"/>
</routes>