<routes>
        <vType id="car" vClass="passenger" length="2" accel="3.5" decel="2.2" sigma="1.0" maxSpeed="10" color="1,0,0"/>
        <vType id="car1" 
        vClass="passenger" length="2" accel="3.5" decel="2.2" 
        sigma="1.0" maxSpeed="10" color="0,255,255"/>
            
        <vType id="car2" 
        vClass="passenger" length="2" accel="3.5" decel="2.2" 
        sigma="1.0" maxSpeed="10" color="1,0,0"/>

            <vType id="car3" 
        vClass="passenger" length="2" accel="3.5" decel="2.2" 
        sigma="1.0" maxSpeed="10" color="0,255,0"/>

        <route id="route_0" edges="E0 E1 E2 E3 E4 -E0" />

        <vehicle id="0" type="car" route="route_0" depart="0"/>
        <vehicle id="1" type="car3" route="route_0" depart="3"/>
        <vehicle id="2" type="car1" route="route_0" depart="6"/>
        <vehicle id="3" type="car2" route="route_0" depart="9"/>
        <vehicle id="4" type="car3" route="route_0" depart="12"/>        
        </routes>
