<routes>
    <vType id="type1" accel="0.8" decel="4.5" sigma="0.5" length="5" maxSpeed="70"/>

    <vehicle id="0" type="type1" depart="0" color="1,0,0">
      <route edges="E0 E1 E2 E3 E4 -E0"/>
    
	</vehicle>
	<vehicle id="1" type="type1" depart="2" color="1,0,0">
      <route edges="E0 E1 E2 E3 E4 -E0"/>
    </vehicle>
		
</routes>

