<configuration>
	<input>
		<net-file value="demo.net.xml"/>
		<!--<route-files value="demo.rou.xml"/>-->
		<route-files value="demo2.rou.xml"/>
		<additional-files value="demo.add.xml"/>
	</input>
</configuration>

